64
Lattice = "10.8618 0.0 0.0                         0.0 10.8618 0.0                         0.0 0.0 10.8618" Properties=species:S:1:pos:R:3:forces:R:3 energy=-339.54569023 stress = "27.37287732 0.26670451 0.20911641                             0.26670413 27.1274245 1.23354901                             0.20911668 1.23354914 27.25698582"
Si 10.844568731862001 10.859134840134 10.855168653864002 0.04769775 -0.22246579 0.35355234
Si 5.45132670108 0.044127040061999995 10.858469446266001 -0.13104059 -0.63621124 0.04563954
Si 0.013421165934 5.452547567400001 0.011465607462 0.09199095 -0.50703925 -0.11884172
Si 5.47210315212 5.414903935758001 10.854091163304 -0.56240898 0.34953781 0.07233033
Si 10.847961089238 10.834702307214 5.444387422914001 0.21386715 0.39955879 -0.2025763
Si 5.4377531440919995 10.852492414962 5.422191660468 0.08186926 -0.03492716 0.41917954
Si 0.018657639714 5.4425108297280005 5.479036347678 -0.26674729 -0.01728578 -0.54913054
Si 5.442823432332 5.395834525206 5.428433285220001 -0.1442641 0.41393914 0.34955173
Si 4.089425664834 1.325617301964 4.097730054024001 -0.22862534 0.49331065 -0.55253778
Si 9.513289825266002 1.352684473092 4.047894594972 -0.12561898 -0.25325969 0.4935495
Si 4.111171857378 6.787372960314 4.071610031856 -0.40523692 -0.08757708 0.21116544
Si 9.47378795688 6.780918878754001 4.104759593748 0.44592858 -0.35253004 -0.54723557
Si 4.046213731422 1.321623743958 9.501476640204 0.60623823 0.47720897 -0.10841922
Si 9.533122603122 1.372878731652 9.50302629321 -0.25990981 -0.27372698 -0.17331491
Si 4.072902694674 6.805669988268001 9.501021856638001 0.25722378 -0.44539958 0.21811488
Si 9.519709366302001 6.7663338709500005 9.521840016990001 -0.20012392 0.27606166 -0.342021
Si 10.842642934722 2.7016090254960003 2.729937577458 0.33334225 0.27471479 -0.44137136
Si 5.440046504544 2.771073495036 2.7126404868120004 -0.13686855 -0.68901635 0.09484814
Si 0.00407154573 8.145542099316 2.71073978043 -0.2604847 -0.41228839 0.31470277
Si 5.424817609236 8.171175512844 2.72539180554 0.32487289 -0.1089007 -0.01863561
Si 0.007470854658 2.7556801520760006 8.168525559498 -0.14430354 -0.39675093 -0.43855978
Si 5.4287748888300005 2.72013740979 8.14231972911 -0.08586581 -0.23896145 0.34051491
Si 10.856880473544 8.137128874890001 8.108582000748001 -0.3685134 0.10219183 0.55835358
Si 5.403710850858 8.154947440554 8.155201498056002 0.32896364 0.04057268 -0.11578564
Si 4.072392841782 4.0791418212120005 1.3417103620800002 -0.08576971 0.01075005 -0.0925407
Si 9.500345275116 4.074379573620001 1.349681185392 -0.14013081 -0.10234041 0.01086252
Si 4.088719539216 9.48545135772 1.348097317716 -0.1640517 0.59594929 0.0314017
Si 9.49671395814 9.468483814086001 1.398442955514 -0.09800328 0.44235449 -0.53432486
Si 4.06534635765 4.055236411446 6.817654572534 0.08471425 0.32707968 -0.2907654
Si 9.521535995208 4.0712481166800005 6.77289059652 -0.4792612 0.03726983 0.35164505
Si 4.078327186212 9.50338093098 6.797205170292 -0.02686044 0.20372118 -0.12687018
Si 9.48772310319 9.500561642172 6.776168470524 -0.16574937 -0.22311168 0.01736155
Si 2.681600395098 10.857605281458001 2.7120631821420003 0.47159599 -0.03785883 -0.07784928
Si 8.14987899882 10.85626536981 2.728803171066 -0.08464638 0.08049803 -0.23709629
Si 2.719969377744 5.42987681844 2.718145790142 -0.14863418 0.22936866 -0.13138599
Si 8.099794261458001 5.417369564358 2.70422378661 0.70842394 0.45282475 -0.12139597
Si 2.7391445822280005 0.026587622658 8.125642738626 -0.71701759 -0.59581663 0.16290738
Si 8.150204961438 10.840833576078001 8.163249657384 0.10706184 0.42383108 -0.25815531
Si 2.7284064981300005 5.447103416004001 8.159272717932001 -0.14201617 -0.08437325 -0.10924459
Si 8.124188560842 5.429164610214 8.169662789958 0.30927951 0.1263273 -0.43616509
Si 1.3640790443820001 1.3603371542820002 1.3339613367240002 -0.2012553 0.08542341 0.13356361
Si 6.800391696558 1.3730151558600001 1.347524575002 -0.09856664 0.03895979 0.43852513
Si 1.34662043877 6.81445164495 1.340976213018 0.44935868 -0.1878039 0.26204729
Si 6.77638592376 6.8012432616780005 1.352562277842 0.01897827 0.09685202 0.05028705
Si 1.351162083204 1.379018038248 6.799613665824 -0.05036813 -0.06448054 -0.14807455
Si 6.779934473820001 1.3616641403879999 6.790311077214 0.15604799 -0.13966364 0.02928945
Si 1.336143472344 6.791453195483999 6.817385742984001 0.67095628 0.02633154 -0.23462732
Si 6.77837200389 6.823223526012001 6.780294651108 -0.16530977 -0.529857 0.25715483
Si 2.729817663186 2.701149788592 10.82862534735 -0.12584218 0.1579235 0.26486418
Si 8.145311177448 2.6811206293920002 10.840718984088 0.22571668 0.4692526 0.10056447
Si 2.7395353897920005 8.145692100774 10.85056183863 -0.37063915 0.13859966 0.02546835
Si 8.145264688944 8.14725315867 10.850479723422 0.129404 -0.12302099 0.15286682
Si 2.73035184651 2.724521666742 5.440627502226 -0.25958709 -0.12676261 -0.22717298
Si 8.153111579118 2.699218017462 5.418432825960001 -0.00712843 0.21966605 -0.10551849
Si 2.72780692677 8.151580717026 5.45334482352 -0.209282 -0.21552457 -0.34680316
Si 8.131954639224 8.1197222973 5.410151898258 0.10636686 0.4939392 0.34727339
Si 1.33101148908 4.086983714958 4.072995345828 0.30461719 -0.1450566 0.12979029
Si 6.795479013036001 4.111286557986 4.0580911097220005 -0.00191554 -0.66204627 0.36681719
Si 1.33351133235 9.490351441554001 4.052935230498 0.29185555 0.04932005 0.45325073
Si 6.806244251634 9.518071298244001 4.09755322392 -0.18775826 -0.17373272 -0.32673938
Si 1.369018122078 4.059354662916 9.481094689739999 0.10666881 0.52327683 0.52620511
Si 6.789265737582 4.071809888976 9.50870049753 0.06117918 -0.35831941 -0.12434433
Si 1.32024310056 9.481280100666 9.503692773258 0.53783515 0.31901461 -0.27139183
Si 6.795637486698 9.498060604104001 9.493508966814002 -0.24814899 0.11776214 0.25144147