2
Lattice = "2.69006633 2.69006633 0.0                         0.0 2.69006633 2.69006633                         2.69006633 0.0 2.69006633" Properties=species:S:1:pos:R:3:forces:R:3 energy=-10.81470665 stress = "47.05616685 -0.0 0.0                             0.0 47.05616685 0.0                             0.0 -0.0 47.05616685"
Si 0.0 0.0 0.0 -0.0 0.0 -0.0
Si 1.345033165 1.345033165 1.345033165 0.0 -0.0 0.0
2
Lattice = "2.80088265 2.80088265 0.0                         0.0 2.80088265 2.80088265                         2.80088265 0.0 2.80088265" Properties=species:S:1:pos:R:3:forces:R:3 energy=-10.78942904 stress = "-57.2662807 -0.0 -0.0                             0.0 -57.2662807 0.0                             -0.0 0.0 -57.2662807"
Si 0.0 0.0 0.0 0.0 0.0 0.0
Si 1.400441325 1.400441325 1.400441325 -0.0 -0.0 -0.0
2
Lattice = "2.65682143 2.65682143 0.0                         0.0 2.65682143 2.65682143                         2.65682143 0.0 2.65682143" Properties=species:S:1:pos:R:3:forces:R:3 energy=-10.75251952 stress = "92.24046571 -0.0 0.0                             -0.0 92.24046571 -0.0                             0.0 -0.0 92.24046571"
Si 0.0 0.0 0.0 0.0 0.0 0.0
Si 1.328410715 1.328410715 1.328410715 -0.0 -0.0 -0.0
2
Lattice = "2.79534184 2.79534184 0.0                         0.0 2.79534184 2.79534184                         2.79534184 0.0 2.79534184" Properties=species:S:1:pos:R:3:forces:R:3 energy=-10.79825384 stress = "-54.03909449 0.0 0.0                             0.0 -54.03909449 -0.0                             0.0 0.0 -54.03909449"
Si 0.0 0.0 0.0 -0.0 -0.0 -0.0
Si 1.39767092 1.39767092 1.39767092 0.0 0.0 0.0
2
Lattice = "2.73439286 2.73439286 0.0                         0.0 2.73439286 2.73439286                         2.73439286 0.0 2.73439286" Properties=species:S:1:pos:R:3:forces:R:3 energy=-10.84458328 stress = "-2.64334244 0.0 -0.0                             -0.0 -2.64334244 0.0                             -0.0 0.0 -2.64334244"
Si 0.0 0.0 0.0 -0.0 -0.0 -0.0
Si 1.36719643 1.36719643 1.36719643 0.0 0.0 0.0
2
Lattice = "2.73993367 2.73993367 0.0                         0.0 2.73993367 2.73993367                         2.73993367 0.0 2.73993367" Properties=species:S:1:pos:R:3:forces:R:3 energy=-10.84400702 stress = "-7.3043081 0.0 -0.0                             0.0 -7.3043081 0.0                             -0.0 0.0 -7.3043081"
Si 0.0 0.0 0.0 0.0 0.0 0.0
Si 1.369966835 1.369966835 1.369966835 -0.0 -0.0 -0.0
2
Lattice = "2.70668878 2.70668878 0.0                         0.0 2.70668878 2.70668878                         2.70668878 0.0 2.70668878" Properties=species:S:1:pos:R:3:forces:R:3 energy=-10.83268635 stress = "29.48936088 -0.0 0.0                             0.0 29.48936088 -0.0                             0.0 -0.0 29.48936088"
Si 0.0 0.0 0.0 -0.0 -0.0 0.0
Si 1.35334439 1.35334439 1.35334439 0.0 0.0 -0.0
2
Lattice = "2.68452551 2.68452551 0.0                         0.0 2.68452551 2.68452551                         2.68452551 0.0 2.68452551" Properties=species:S:1:pos:R:3:forces:R:3 energy=-10.80684001 stress = "53.24871687 0.0 -0.0                             -0.0 53.24871687 0.0                             -0.0 -0.0 53.24871687"
Si 0.0 0.0 0.0 -0.0 0.0 0.0
Si 1.342262755 1.342262755 1.342262755 0.0 -0.0 -0.0
2
Lattice = "2.65128061 2.65128061 0.0                         0.0 2.65128061 2.65128061                         2.65128061 0.0 2.65128061" Properties=species:S:1:pos:R:3:forces:R:3 energy=-10.73824767 stress = "99.5406758 -0.0 0.0                             0.0 99.5406758 -0.0                             0.0 0.0 99.5406758"
Si 0.0 0.0 0.0 -0.0 -0.0 -0.0
Si 1.325640305 1.325640305 1.325640305 0.0 0.0 0.0
2
Lattice = "2.78980102 2.78980102 0.0                         0.0 2.78980102 2.78980102                         2.78980102 0.0 2.78980102" Properties=species:S:1:pos:R:3:forces:R:3 energy=-10.80653388 stress = "-50.67837112 0.0 0.0                             -0.0 -50.67837112 0.0                             0.0 0.0 -50.67837112"
Si 0.0 0.0 0.0 0.0 0.0 0.0
Si 1.39490051 1.39490051 1.39490051 -0.0 -0.0 -0.0
2
Lattice = "2.60695408 2.60695408 0.0                         0.0 2.60695408 2.60695408                         2.60695408 0.0 2.60695408" Properties=species:S:1:pos:R:3:forces:R:3 energy=-10.5830316 stress = "173.3577558 0.0 -0.0                             -0.0 173.3577558 0.0                             0.0 -0.0 173.3577558"
Si 0.0 0.0 0.0 0.0 -0.0 0.0
Si 1.30347704 1.30347704 1.30347704 -0.0 0.0 -0.0
2
Lattice = "2.75655612 2.75655612 0.0                         0.0 2.75655612 2.75655612                         2.75655612 0.0 2.75655612" Properties=species:S:1:pos:R:3:forces:R:3 energy=-10.83799119 stress = "-21.83941119 -0.0 -0.0                             0.0 -21.83941119 0.0                             -0.0 0.0 -21.83941119"
Si 0.0 0.0 0.0 0.0 0.0 0.0
Si 1.37827806 1.37827806 1.37827806 -0.0 -0.0 -0.0
2
Lattice = "2.76209694 2.76209694 0.0                         0.0 2.76209694 2.76209694                         2.76209694 0.0 2.76209694" Properties=species:S:1:pos:R:3:forces:R:3 energy=-10.83448009 stress = "-25.9399435 -0.0 -0.0                             -0.0 -25.9399435 -0.0                             0.0 0.0 -25.9399435"
Si 0.0 0.0 0.0 -0.0 0.0 -0.0
Si 1.38104847 1.38104847 1.38104847 0.0 -0.0 0.0
2
Lattice = "2.6124949 2.6124949 0.0                         0.0 2.6124949 2.6124949                         2.6124949 0.0 2.6124949" Properties=species:S:1:pos:R:3:forces:R:3 energy=-10.60709413 stress = "158.10238897 -0.0 -0.0                             0.0 158.10238897 0.0                             0.0 0.0 158.10238897"
Si 0.0 0.0 0.0 -0.0 -0.0 -0.0
Si 1.30624745 1.30624745 1.30624745 0.0 0.0 0.0
2
Lattice = "2.66236224 2.66236224 0.0                         0.0 2.66236224 2.66236224                         2.66236224 0.0 2.66236224" Properties=species:S:1:pos:R:3:forces:R:3 energy=-10.7658801 stress = "85.07855373 0.0 0.0                             -0.0 85.07855373 -0.0                             0.0 -0.0 85.07855373"
Si 0.0 0.0 0.0 0.0 0.0 0.0
Si 1.33118112 1.33118112 1.33118112 -0.0 -0.0 -0.0
2
Lattice = "2.77317857 2.77317857 0.0                         0.0 2.77317857 2.77317857                         2.77317857 0.0 2.77317857" Properties=species:S:1:pos:R:3:forces:R:3 energy=-10.82532465 stress = "-33.79007589 0.0 0.0                             0.0 -33.79007589 -0.0                             0.0 -0.0 -33.79007589"
Si 0.0 0.0 0.0 0.0 0.0 0.0
Si 1.386589285 1.386589285 1.386589285 -0.0 -0.0 -0.0
2
Lattice = "2.83966837 2.83966837 0.0                         0.0 2.83966837 2.83966837                         2.83966837 0.0 2.83966837" Properties=species:S:1:pos:R:3:forces:R:3 energy=-10.71096439 stress = "-79.82804036 0.0 -0.0                             0.0 -79.82804036 -0.0                             0.0 0.0 -79.82804036"
Si 0.0 0.0 0.0 -0.0 -0.0 -0.0
Si 1.419834185 1.419834185 1.419834185 0.0 0.0 0.0
2
Lattice = "2.69560714 2.69560714 0.0                         0.0 2.69560714 2.69560714                         2.69560714 0.0 2.69560714" Properties=species:S:1:pos:R:3:forces:R:3 energy=-10.82148764 stress = "41.02601762 0.0 -0.0                             -0.0 41.02601762 0.0                             -0.0 0.0 41.02601762"
Si 0.0 0.0 0.0 0.0 -0.0 0.0
Si 1.34780357 1.34780357 1.34780357 -0.0 0.0 -0.0
2
Lattice = "2.59587245 2.59587245 0.0                         0.0 2.59587245 2.59587245                         2.59587245 0.0 2.59587245" Properties=species:S:1:pos:R:3:forces:R:3 energy=-10.53099589 stress = "192.26442037 -0.0 0.0                             -0.0 192.26442037 -0.0                             0.0 -0.0 192.26442037"
Si 0.0 0.0 0.0 -0.0 0.0 -0.0
Si 1.297936225 1.297936225 1.297936225 0.0 -0.0 0.0
2
Lattice = "2.62357653 2.62357653 0.0                         0.0 2.62357653 2.62357653                         2.62357653 0.0 2.62357653" Properties=species:S:1:pos:R:3:forces:R:3 energy=-10.65021457 stress = "140.70225366 0.0 -0.0                             0.0 140.70225366 0.0                             -0.0 0.0 140.70225366"
Si 0.0 0.0 0.0 -0.0 0.0 -0.0
Si 1.311788265 1.311788265 1.311788265 0.0 -0.0 0.0
2
Lattice = "2.74547449 2.74547449 0.0                         0.0 2.74547449 2.74547449                         2.74547449 0.0 2.74547449" Properties=species:S:1:pos:R:3:forces:R:3 energy=-10.84274915 stress = "-11.84675677 -0.0 -0.0                             0.0 -11.84675677 0.0                             -0.0 -0.0 -11.84675677"
Si 0.0 0.0 0.0 -0.0 -0.0 -0.0
Si 1.372737245 1.372737245 1.372737245 0.0 0.0 0.0
2
Lattice = "2.8175051 2.8175051 0.0                         0.0 2.8175051 2.8175051                         2.8175051 0.0 2.8175051" Properties=species:S:1:pos:R:3:forces:R:3 energy=-10.75950832 stress = "-66.45695099 -0.0 -0.0                             -0.0 -66.45695099 0.0                             -0.0 0.0 -66.45695099"
Si 0.0 0.0 0.0 0.0 0.0 0.0
Si 1.40875255 1.40875255 1.40875255 -0.0 -0.0 -0.0
2
Lattice = "2.57925 2.57925 0.0                         0.0 2.57925 2.57925                         2.57925 0.0 2.57925" Properties=species:S:1:pos:R:3:forces:R:3 energy=-10.44329598 stress = "224.26674745 0.0 0.0                             0.0 224.26674745 -0.0                             0.0 -0.0 224.26674745"
Si 0.0 0.0 0.0 0.0 -0.0 0.0
Si 1.289625 1.289625 1.289625 -0.0 0.0 -0.0
2
Lattice = "2.84520918 2.84520918 0.0                         0.0 2.84520918 2.84520918                         2.84520918 0.0 2.84520918" Properties=species:S:1:pos:R:3:forces:R:3 energy=-10.69755286 stress = "-82.36603632 0.0 0.0                             -0.0 -82.36603632 -0.0                             0.0 -0.0 -82.36603632"
Si 0.0 0.0 0.0 -0.0 0.0 -0.0
Si 1.42260459 1.42260459 1.42260459 0.0 -0.0 0.0
2
Lattice = "2.67898469 2.67898469 0.0                         0.0 2.67898469 2.67898469                         2.67898469 0.0 2.67898469" Properties=species:S:1:pos:R:3:forces:R:3 energy=-10.79817585 stress = "59.63228786 0.0 -0.0                             0.0 59.63228786 0.0                             -0.0 -0.0 59.63228786"
Si 0.0 0.0 0.0 -0.0 -0.0 -0.0
Si 1.339492345 1.339492345 1.339492345 0.0 0.0 0.0
2
Lattice = "2.71222959 2.71222959 0.0                         0.0 2.71222959 2.71222959                         2.71222959 0.0 2.71222959" Properties=species:S:1:pos:R:3:forces:R:3 energy=-10.83705493 stress = "23.99916195 0.0 -0.0                             -0.0 23.99916195 0.0                             0.0 -0.0 23.99916195"
Si 0.0 0.0 0.0 0.0 0.0 0.0
Si 1.356114795 1.356114795 1.356114795 -0.0 -0.0 -0.0
2
Lattice = "2.82304592 2.82304592 0.0                         0.0 2.82304592 2.82304592                         2.82304592 0.0 2.82304592" Properties=species:S:1:pos:R:3:forces:R:3 energy=-10.74830942 stress = "-71.71859674 0.0 -0.0                             -0.0 -71.71859674 -0.0                             0.0 -0.0 -71.71859674"
Si 0.0 0.0 0.0 -0.0 -0.0 -0.0
Si 1.41152296 1.41152296 1.41152296 0.0 0.0 0.0
2
Lattice = "2.63465816 2.63465816 0.0                         0.0 2.63465816 2.63465816                         2.63465816 0.0 2.63465816" Properties=species:S:1:pos:R:3:forces:R:3 energy=-10.68883813 stress = "124.16347267 0.0 0.0                             0.0 124.16347267 -0.0                             0.0 0.0 124.16347267"
Si 0.0 0.0 0.0 -0.0 -0.0 -0.0
Si 1.31732908 1.31732908 1.31732908 0.0 0.0 0.0
2
Lattice = "2.58479082 2.58479082 0.0                         0.0 2.58479082 2.58479082                         2.58479082 0.0 2.58479082" Properties=species:S:1:pos:R:3:forces:R:3 energy=-10.47388813 stress = "213.9082585 0.0 -0.0                             0.0 213.9082585 0.0                             -0.0 0.0 213.9082585"
Si 0.0 0.0 0.0 -0.0 -0.0 0.0
Si 1.29239541 1.29239541 1.29239541 0.0 0.0 -0.0
2
Lattice = "2.7842602 2.7842602 0.0                         0.0 2.7842602 2.7842602                         2.7842602 0.0 2.7842602" Properties=species:S:1:pos:R:3:forces:R:3 energy=-10.8136611 stress = "-41.12601383 0.0 -0.0                             -0.0 -41.12601383 0.0                             -0.0 0.0 -41.12601383"
Si 0.0 0.0 0.0 0.0 0.0 0.0
Si 1.3921301 1.3921301 1.3921301 -0.0 -0.0 -0.0
2
Lattice = "2.59033163 2.59033163 0.0                         0.0 2.59033163 2.59033163                         2.59033163 0.0 2.59033163" Properties=species:S:1:pos:R:3:forces:R:3 energy=-10.50312747 stress = "202.08249236 0.0 0.0                             -0.0 202.08249236 0.0                             0.0 -0.0 202.08249236"
Si 0.0 0.0 0.0 0.0 -0.0 -0.0
Si 1.295165815 1.295165815 1.295165815 -0.0 0.0 0.0
2
Lattice = "2.66790306 2.66790306 0.0                         0.0 2.66790306 2.66790306                         2.66790306 0.0 2.66790306" Properties=species:S:1:pos:R:3:forces:R:3 energy=-10.77803954 stress = "72.87303358 -0.0 -0.0                             0.0 72.87303358 0.0                             -0.0 0.0 72.87303358"
Si 0.0 0.0 0.0 -0.0 -0.0 -0.0
Si 1.33395153 1.33395153 1.33395153 0.0 0.0 0.0
2
Lattice = "2.60141327 2.60141327 0.0                         0.0 2.60141327 2.60141327                         2.60141327 0.0 2.60141327" Properties=species:S:1:pos:R:3:forces:R:3 energy=-10.55759452 stress = "182.6790094 -0.0 0.0                             -0.0 182.6790094 -0.0                             0.0 -0.0 182.6790094"
Si 0.0 0.0 0.0 -0.0 -0.0 0.0
Si 1.300706635 1.300706635 1.300706635 0.0 0.0 -0.0
2
Lattice = "2.6457398 2.6457398 0.0                         0.0 2.6457398 2.6457398                         2.6457398 0.0 2.6457398" Properties=species:S:1:pos:R:3:forces:R:3 energy=-10.72296144 stress = "107.11437403 -0.0 -0.0                             0.0 107.11437403 0.0                             0.0 -0.0 107.11437403"
Si 0.0 0.0 0.0 -0.0 -0.0 -0.0
Si 1.3228699 1.3228699 1.3228699 0.0 0.0 0.0
2
Lattice = "2.75101531 2.75101531 0.0                         0.0 2.75101531 2.75101531                         2.75101531 0.0 2.75101531" Properties=species:S:1:pos:R:3:forces:R:3 energy=-10.84077206 stress = "-16.25548742 -0.0 0.0                             0.0 -16.25548742 -0.0                             0.0 -0.0 -16.25548742"
Si 0.0 0.0 0.0 -0.0 -0.0 -0.0
Si 1.375507655 1.375507655 1.375507655 0.0 0.0 0.0
2
Lattice = "2.81196429 2.81196429 0.0                         0.0 2.81196429 2.81196429                         2.81196429 0.0 2.81196429" Properties=species:S:1:pos:R:3:forces:R:3 energy=-10.77004247 stress = "-63.52510349 0.0 0.0                             -0.0 -63.52510349 -0.0                             -0.0 -0.0 -63.52510349"
Si 0.0 0.0 0.0 -0.0 0.0 -0.0
Si 1.405982145 1.405982145 1.405982145 0.0 -0.0 0.0
2
Lattice = "2.77871939 2.77871939 0.0                         0.0 2.77871939 2.77871939                         2.77871939 0.0 2.77871939" Properties=species:S:1:pos:R:3:forces:R:3 energy=-10.81980635 stress = "-37.51058285 -0.0 0.0                             0.0 -37.51058285 -0.0                             0.0 -0.0 -37.51058285"
Si 0.0 0.0 0.0 -0.0 -0.0 -0.0
Si 1.389359695 1.389359695 1.389359695 0.0 0.0 0.0
2
Lattice = "2.62911735 2.62911735 0.0                         0.0 2.62911735 2.62911735                         2.62911735 0.0 2.62911735" Properties=species:S:1:pos:R:3:forces:R:3 energy=-10.6701934 stress = "132.37516992 0.0 -0.0                             0.0 132.37516992 0.0                             -0.0 0.0 132.37516992"
Si 0.0 0.0 0.0 -0.0 0.0 -0.0
Si 1.314558675 1.314558675 1.314558675 0.0 -0.0 0.0
2
Lattice = "2.70114796 2.70114796 0.0                         0.0 2.70114796 2.70114796                         2.70114796 0.0 2.70114796" Properties=species:S:1:pos:R:3:forces:R:3 energy=-10.82750688 stress = "35.16094623 -0.0 0.0                             0.0 35.16094623 -0.0                             -0.0 0.0 35.16094623"
Si 0.0 0.0 0.0 -0.0 -0.0 0.0
Si 1.35057398 1.35057398 1.35057398 0.0 0.0 -0.0
2
Lattice = "2.72885204 2.72885204 0.0                         0.0 2.72885204 2.72885204                         2.72885204 0.0 2.72885204" Properties=species:S:1:pos:R:3:forces:R:3 energy=-10.84445411 stress = "2.16640954 0.0 -0.0                             -0.0 2.16640954 -0.0                             0.0 0.0 2.16640954"
Si 0.0 0.0 0.0 -0.0 -0.0 -0.0
Si 1.36442602 1.36442602 1.36442602 0.0 0.0 0.0
2
Lattice = "2.76763776 2.76763776 0.0                         0.0 2.76763776 2.76763776                         2.76763776 0.0 2.76763776" Properties=species:S:1:pos:R:3:forces:R:3 energy=-10.83024277 stress = "-29.89845587 0.0 0.0                             0.0 -29.89845587 -0.0                             0.0 -0.0 -29.89845587"
Si 0.0 0.0 0.0 -0.0 -0.0 -0.0
Si 1.38381888 1.38381888 1.38381888 0.0 0.0 0.0
2
Lattice = "2.82858673 2.82858673 0.0                         0.0 2.82858673 2.82858673                         2.82858673 0.0 2.82858673" Properties=species:S:1:pos:R:3:forces:R:3 energy=-10.73633043 stress = "-74.51009448 0.0 -0.0                             0.0 -74.51009448 0.0                             -0.0 0.0 -74.51009448"
Si 0.0 0.0 0.0 -0.0 -0.0 -0.0
Si 1.414293365 1.414293365 1.414293365 0.0 0.0 0.0
2
Lattice = "2.64019898 2.64019898 0.0                         0.0 2.64019898 2.64019898                         2.64019898 0.0 2.64019898" Properties=species:S:1:pos:R:3:forces:R:3 energy=-10.70653136 stress = "114.84678746 0.0 0.0                             0.0 114.84678746 0.0                             -0.0 0.0 114.84678746"
Si 0.0 0.0 0.0 0.0 0.0 -0.0
Si 1.32009949 1.32009949 1.32009949 -0.0 -0.0 0.0
2
Lattice = "2.80642347 2.80642347 0.0                         0.0 2.80642347 2.80642347                         2.80642347 0.0 2.80642347" Properties=species:S:1:pos:R:3:forces:R:3 energy=-10.77998502 stress = "-60.42749962 0.0 -0.0                             0.0 -60.42749962 0.0                             -0.0 0.0 -60.42749962"
Si 0.0 0.0 0.0 0.0 0.0 0.0
Si 1.403211735 1.403211735 1.403211735 -0.0 -0.0 -0.0
2
Lattice = "2.61803571 2.61803571 0.0                         0.0 2.61803571 2.61803571                         2.61803571 0.0 2.61803571" Properties=species:S:1:pos:R:3:forces:R:3 energy=-10.629192 stress = "149.3259316 0.0 -0.0                             -0.0 149.3259316 0.0                             0.0 -0.0 149.3259316"
Si 0.0 0.0 0.0 -0.0 -0.0 -0.0
Si 1.309017855 1.309017855 1.309017855 0.0 0.0 0.0
2
Lattice = "2.67344388 2.67344388 0.0                         0.0 2.67344388 2.67344388                         2.67344388 0.0 2.67344388" Properties=species:S:1:pos:R:3:forces:R:3 energy=-10.7885581 stress = "66.10802391 0.0 -0.0                             0.0 66.10802391 0.0                             -0.0 -0.0 66.10802391"
Si 0.0 0.0 0.0 -0.0 -0.0 -0.0
Si 1.33672194 1.33672194 1.33672194 0.0 0.0 0.0
2
Lattice = "2.83412755 2.83412755 0.0                         0.0 2.83412755 2.83412755                         2.83412755 0.0 2.83412755" Properties=species:S:1:pos:R:3:forces:R:3 energy=-10.72386607 stress = "-77.19565863 -0.0 -0.0                             0.0 -77.19565863 0.0                             -0.0 0.0 -77.19565863"
Si 0.0 0.0 0.0 0.0 -0.0 0.0
Si 1.417063775 1.417063775 1.417063775 -0.0 0.0 -0.0
2
Lattice = "2.85075 2.85075 0.0                         0.0 2.85075 2.85075                         2.85075 0.0 2.85075" Properties=species:S:1:pos:R:3:forces:R:3 energy=-10.68363898 stress = "-84.82945237 -0.0 0.0                             0.0 -84.82945237 -0.0                             0.0 -0.0 -84.82945237"
Si 0.0 0.0 0.0 0.0 0.0 -0.0
Si 1.425375 1.425375 1.425375 -0.0 -0.0 0.0
2
Lattice = "2.71777041 2.71777041 0.0                         0.0 2.71777041 2.71777041                         2.71777041 0.0 2.71777041" Properties=species:S:1:pos:R:3:forces:R:3 energy=-10.84048432 stress = "18.67258863 0.0 0.0                             0.0 18.67258863 0.0                             0.0 -0.0 18.67258863"
Si 0.0 0.0 0.0 0.0 0.0 0.0
Si 1.358885205 1.358885205 1.358885205 -0.0 -0.0 -0.0
2
Lattice = "2.72331122 2.72331122 0.0                         0.0 2.72331122 2.72331122                         2.72331122 0.0 2.72331122" Properties=species:S:1:pos:R:3:forces:R:3 energy=-10.84320474 stress = "13.54038307 0.0 -0.0                             -0.0 13.54038307 0.0                             -0.0 0.0 13.54038307"
Si 0.0 0.0 0.0 0.0 0.0 0.0
Si 1.36165561 1.36165561 1.36165561 -0.0 -0.0 -0.0
